HXACAN
 OpenBabel02292410393D

 20 20  0  0  0  0  0  0  0  0999 V2000
    5.2674    5.8134    2.1514 C   0  0  0  0  0  0  0  0  0  0  0  0
    4.0031    5.7894    1.5688 C   0  0  0  0  0  0  0  0  0  0  0  0
    3.2948    4.6000    1.5326 C   0  0  0  0  0  0  0  0  0  0  0  0
    3.8260    3.4465    2.0752 C   0  0  0  0  0  0  0  0  0  0  0  0
    5.0537    3.4774    2.7021 C   0  0  0  0  0  0  0  0  0  0  0  0
    5.7774    4.6652    2.7354 C   0  0  0  0  0  0  0  0  0  0  0  0
    5.8199    8.2473    1.9333 C   0  0  0  0  0  0  0  0  0  0  0  0
    7.0039    9.1827    1.9917 C   0  0  0  0  0  0  0  0  0  0  0  0
    3.6477    6.5910    1.2051 H   0  0  0  0  0  0  0  0  0  0  0  0
    2.4436    4.5656    1.1385 H   0  0  0  0  0  0  0  0  0  0  0  0
    5.3595    2.6604    3.1051 H   0  0  0  0  0  0  0  0  0  0  0  0
    6.5990    4.6514    3.2012 H   0  0  0  0  0  0  0  0  0  0  0  0
    3.6123    1.6306    2.0626 H   0  0  0  0  0  0  0  0  0  0  0  0
    6.8705    6.7798    2.3214 H   0  0  0  0  0  0  0  0  0  0  0  0
    7.6733    8.8910    2.5580 H   0  0  0  0  0  0  0  0  0  0  0  0
    6.7407   10.0066    2.1366 H   0  0  0  0  0  0  0  0  0  0  0  0
    7.4253    9.1656    1.1237 H   0  0  0  0  0  0  0  0  0  0  0  0
    6.1162    6.9566    2.1528 N   0  0  0  0  0  0  0  0  0  0  0  0
    3.1047    2.2725    1.9872 O   0  0  0  0  0  0  0  0  0  0  0  0
    4.6854    8.6335    1.6915 O   0  0  0  0  0  0  0  0  0  0  0  0
  1 18  1  0  0  0  0
  1  6  1  0  0  0  0
  2  1  2  0  0  0  0
  3  2  1  0  0  0  0
  3  4  2  0  0  0  0
  4  5  1  0  0  0  0
  5  6  2  0  0  0  0
  5 11  1  0  0  0  0
  6 12  1  0  0  0  0
  7  8  1  0  0  0  0
  7 18  1  0  0  0  0
  8 16  1  0  0  0  0
  8 15  1  0  0  0  0
  9  2  1  0  0  0  0
 10  3  1  0  0  0  0
 17  8  1  0  0  0  0
 18 14  1  0  0  0  0
 19 13  1  0  0  0  0
 19  4  1  0  0  0  0
 20  7  2  0  0  0  0
M  END
> <PUBCHEM_EXT_DATASOURCE_REGID>
HXACAN

> <PUBCHEM_EXT_DATASOURCE_URL>
https://www.crystallography.net/

> <PUBCHEM_EXT_SUBSTANCE_URL>
https://www.crystallography.net/cod/HXACAN.html

$$$$
